Version 4
SHEET 1 4272 2160
WIRE -912 320 -912 256
WIRE -624 320 -624 272
WIRE -480 320 -480 272
WIRE -336 320 -336 272
WIRE -912 448 -912 400
WIRE -624 448 -624 400
WIRE -480 448 -480 400
WIRE -336 448 -336 400
WIRE 304 752 304 576
WIRE 304 896 304 816
WIRE 64 912 -320 912
WIRE -1664 944 -1696 944
WIRE -1568 944 -1584 944
WIRE -1536 944 -1568 944
WIRE -1408 944 -1456 944
WIRE -1280 944 -1328 944
WIRE -1184 944 -1200 944
WIRE -1152 944 -1184 944
WIRE -1024 944 -1072 944
WIRE -1568 1008 -1568 944
WIRE -1328 1008 -1328 944
WIRE -1328 1008 -1568 1008
WIRE 304 1008 304 976
WIRE -1104 1072 -1104 1040
WIRE -1184 1088 -1184 944
WIRE -1136 1088 -1184 1088
WIRE 64 1088 64 912
WIRE 256 1088 64 1088
WIRE -1024 1104 -1024 944
WIRE -1024 1104 -1072 1104
WIRE -912 1104 -1024 1104
WIRE -128 1104 -128 1024
WIRE -1568 1120 -1616 1120
WIRE -1424 1120 -1488 1120
WIRE -1136 1120 -1424 1120
WIRE -16 1120 -96 1120
WIRE -320 1136 -320 912
WIRE -160 1136 -320 1136
WIRE 304 1152 304 1104
WIRE 304 1152 -96 1152
WIRE 304 1168 304 1152
WIRE -1424 1200 -1424 1120
WIRE -1104 1200 -1104 1136
WIRE -128 1216 -128 1168
WIRE 304 1312 304 1248
WIRE -1424 1360 -1424 1280
WIRE -1648 1504 -1680 1504
WIRE -1552 1504 -1568 1504
WIRE -1520 1504 -1552 1504
WIRE -1392 1504 -1440 1504
WIRE -1264 1504 -1312 1504
WIRE -1168 1504 -1184 1504
WIRE -1136 1504 -1168 1504
WIRE -1008 1504 -1056 1504
WIRE -1552 1568 -1552 1504
WIRE -1312 1568 -1312 1504
WIRE -1312 1568 -1552 1568
WIRE -1088 1632 -1088 1600
WIRE -1168 1648 -1168 1504
WIRE -1120 1648 -1168 1648
WIRE -1008 1664 -1008 1504
WIRE -1008 1664 -1056 1664
WIRE -896 1664 -1008 1664
WIRE -1552 1680 -1600 1680
WIRE -1408 1680 -1472 1680
WIRE -1120 1680 -1408 1680
WIRE -1408 1760 -1408 1680
WIRE -1088 1760 -1088 1696
WIRE -1408 1920 -1408 1840
FLAG -912 448 0
FLAG -912 256 Vin
FLAG -128 1216 12V
FLAG -624 448 0
FLAG -624 272 12V
FLAG 304 576 12V
FLAG 304 1312 0
FLAG -16 1120 Vblue
FLAG -480 448 0
FLAG -480 272 -12V
FLAG -336 448 0
FLAG -336 272 5V
FLAG -1104 1040 12V
FLAG -1104 1200 -12V
FLAG -1424 1360 0
FLAG -912 1104 Vblue
FLAG -1696 944 5V
FLAG -1408 944 0
FLAG -1616 1120 Vin
FLAG -1088 1600 12V
FLAG -1088 1760 -12V
FLAG -1408 1920 0
FLAG -896 1664 Vblue
FLAG -1680 1504 5V
FLAG -1392 1504 0
FLAG -1600 1680 Vin
FLAG -128 1024 0
SYMBOL voltage -912 304 R0
WINDOW 123 0 0 Left 0
WINDOW 39 0 0 Left 0
SYMATTR InstName V1
SYMATTR Value SINE(3 3 10)
SYMBOL OpAmps\\opamp2 -128 1200 R180
SYMATTR InstName U1
SYMATTR Value LM741/NS
SYMBOL voltage -624 304 R0
WINDOW 123 0 0 Left 0
WINDOW 39 0 0 Left 0
SYMATTR InstName V2
SYMATTR Value 12V
SYMBOL LED 288 752 R0
SYMATTR InstName D1
SYMBOL res 288 1152 R0
SYMATTR InstName R1
SYMATTR Value 266
SYMBOL res 288 880 R0
SYMATTR InstName R2
SYMATTR Value 530
SYMBOL voltage -480 304 R0
WINDOW 123 0 0 Left 0
WINDOW 39 0 0 Left 0
SYMATTR InstName V3
SYMATTR Value -12V
SYMBOL voltage -336 304 R0
WINDOW 123 0 0 Left 0
WINDOW 39 0 0 Left 0
SYMATTR InstName V4
SYMATTR Value 5V
SYMBOL OpAmps\\opamp2 -1104 1040 R0
SYMATTR InstName U3
SYMATTR Value LM741/NS
SYMBOL res -1440 1184 R0
SYMATTR InstName R10
SYMATTR Value 100k
SYMBOL res -1056 928 R90
WINDOW 0 0 56 VBottom 2
WINDOW 3 32 56 VTop 2
SYMATTR InstName R13
SYMATTR Value 100k
SYMBOL res -1296 960 R270
WINDOW 0 32 56 VTop 2
WINDOW 3 0 56 VBottom 2
SYMATTR InstName R14
SYMATTR Value 50k
SYMBOL res -1568 928 R90
WINDOW 0 0 56 VBottom 2
WINDOW 3 32 56 VTop 2
SYMATTR InstName R11
SYMATTR Value 600
SYMBOL res -1440 928 R90
WINDOW 0 0 56 VBottom 2
WINDOW 3 32 56 VTop 2
SYMATTR InstName R12
SYMATTR Value 400
SYMBOL res -1472 1104 R90
WINDOW 0 0 56 VBottom 2
WINDOW 3 32 56 VTop 2
SYMATTR InstName R3
SYMATTR Value 50k
SYMBOL OpAmps\\opamp2 -1088 1600 R0
SYMATTR InstName U2
SYMATTR Value LM741/NS
SYMBOL res -1424 1744 R0
SYMATTR InstName R4
SYMATTR Value 100k
SYMBOL res -1040 1488 R90
WINDOW 0 0 56 VBottom 2
WINDOW 3 32 56 VTop 2
SYMATTR InstName R5
SYMATTR Value 100k
SYMBOL res -1280 1520 R270
WINDOW 0 32 56 VTop 2
WINDOW 3 0 56 VBottom 2
SYMATTR InstName R6
SYMATTR Value 50k
SYMBOL res -1552 1488 R90
WINDOW 0 0 56 VBottom 2
WINDOW 3 32 56 VTop 2
SYMATTR InstName R7
SYMATTR Value 600
SYMBOL res -1424 1488 R90
WINDOW 0 0 56 VBottom 2
WINDOW 3 32 56 VTop 2
SYMATTR InstName R8
SYMATTR Value 400
SYMBOL res -1456 1664 R90
WINDOW 0 0 56 VBottom 2
WINDOW 3 32 56 VTop 2
SYMATTR InstName R9
SYMATTR Value 50k
SYMBOL nmos 256 1008 R0
SYMATTR InstName M1
SYMATTR Value IRFZ44N
TEXT -160 352 Left 2 !.include D:\\GITHUB\\EE313-Term-project\\Simulation\\Display Unit\\LM741.MOD
TEXT -1096 352 Left 2 !.tran 0 1 0
TEXT -1024 120 Left 2 ;in the range of 0-5V\nVin(C) = 0.25 *(C-24)\nVin(24C)=0V, Vin(40C)=4V
